Circuit: * F:\Finalproject\ice_ltspice\cselfmade_generated.asc

.OP point found by inspection.

Date: Sat Jul 25 10:52:38 2020
Total elapsed time: 4.920 seconds.

tnom = 27
temp = 27
method = modified trap
totiter = 720040
traniter = 720040
tranpoints = 360021
accept = 240021
rejected = 120000
matrix size = 3
fillins = 0
solver = Normal
Matrix Compiler1: 50 bytes object code size  0.0/0.0/[0.0]
Matrix Compiler2: 175 bytes object code size  0.0/0.0/[0.0]

