Circuit: * C:\projects\ice_ltspice\showfile.asc

Direct Newton iteration for .op point succeeded.

Date: Sun Aug 23 19:37:47 2020
Total elapsed time: 0.026 seconds.

tnom = 27
temp = 27
method = modified trap
totiter = 2091
traniter = 2088
tranpoints = 1045
accept = 1045
rejected = 0
matrix size = 3
fillins = 0
solver = Normal
Matrix Compiler1: off  [0.0]/0.0/0.0
Matrix Compiler2: 175 bytes object code size  0.1/0.0/[0.0]

